


 13 13  0  0  0  0  0  0  0  0999 V2000
   -8.1831  140.8187   11.9851 C   0  0  0  0  0  0  0  0  0  0  0  0
   -6.9532  140.3495   11.5374 C   0  0  0  0  0  0  0  0  0  0  0  0
   -6.8564  139.1804   10.7958 C   0  0  0  0  0  0  0  0  0  0  0  0
   -9.3325  140.1015   11.6738 C   0  0  0  0  0  0  0  0  0  0  0  0
   -9.2464  138.9412   10.9305 C   0  0  0  0  0  0  0  0  0  0  0  0
  -10.8461  138.0034   10.5289 Br  0  0  0  0  0  0  0  0  0  0  0  0
   -8.0072  138.4614   10.4813 C   0  0  0  0  0  0  0  0  0  0  0  0
   -7.9891  137.2957    9.7517 O   0  0  0  0  0  0  0  0  0  0  0  0
   -7.1758  136.9515    9.4386 H   0  0  0  0  0  0  0  0  0  0  0  0
   -9.5208  142.4928   12.9592 F   0  0  0  0  0  0  0  0  0  0  0  0
   -8.2797  142.0669   12.7990 C   0  0  0  0  0  0  0  0  0  0  0  0
   -7.6093  143.0890   12.2626 F   0  0  0  0  0  0  0  0  0  0  0  0
   -7.8099  141.9150   14.0210 F   0  0  0  0  0  0  0  0  0  0  0  0
 10 11  1  0  0  0
 12 11  1  0  0  0
 13 11  1  0  0  0
 11  1  1  0  0  0
  1  2  2  0  0  0
  1  4  1  0  0  0
  2  3  1  0  0  0
  4  5  2  0  0  0
  3  7  2  0  0  0
  5  7  1  0  0  0
  5  6  1  0  0  0
  7  8  1  0  0  0
  8  9  1  0  0  0
M  END
> <minimizedAffinity>
-5.76572

$$$$



 13 13  0  0  0  0  0  0  0  0999 V2000
   -9.4414  140.8357   11.6547 C   0  0  0  0  0  0  0  0  0  0  0  0
   -8.1876  141.4364   11.6354 C   0  0  0  0  0  0  0  0  0  0  0  0
   -7.8343  142.3932   12.5766 C   0  0  0  0  0  0  0  0  0  0  0  0
  -10.3490  141.2006   12.6424 C   0  0  0  0  0  0  0  0  0  0  0  0
  -10.0036  142.1464   13.5870 C   0  0  0  0  0  0  0  0  0  0  0  0
  -11.2775  142.6044   14.9164 Br  0  0  0  0  0  0  0  0  0  0  0  0
   -8.7418  142.7589   13.5682 C   0  0  0  0  0  0  0  0  0  0  0  0
   -8.4627  143.6986   14.5328 O   0  0  0  0  0  0  0  0  0  0  0  0
   -7.6280  144.1240   14.5448 H   0  0  0  0  0  0  0  0  0  0  0  0
  -11.1082  139.8475   10.3182 F   0  0  0  0  0  0  0  0  0  0  0  0
   -9.8234  139.8208   10.6281 C   0  0  0  0  0  0  0  0  0  0  0  0
   -9.5673  138.5694   11.0157 F   0  0  0  0  0  0  0  0  0  0  0  0
   -9.1919  139.9919    9.4841 F   0  0  0  0  0  0  0  0  0  0  0  0
 10 11  1  0  0  0
 12 11  1  0  0  0
 13 11  1  0  0  0
 11  1  1  0  0  0
  1  2  2  0  0  0
  1  4  1  0  0  0
  2  3  1  0  0  0
  4  5  2  0  0  0
  3  7  2  0  0  0
  5  7  1  0  0  0
  5  6  1  0  0  0
  7  8  1  0  0  0
  8  9  1  0  0  0
M  END
> <minimizedAffinity>
-5.75289

$$$$



 13 13  0  0  0  0  0  0  0  0999 V2000
   -8.7942  141.5177   12.1957 C   0  0  0  0  0  0  0  0  0  0  0  0
   -8.2228  142.5006   12.9961 C   0  0  0  0  0  0  0  0  0  0  0  0
   -8.9447  143.1087   14.0135 C   0  0  0  0  0  0  0  0  0  0  0  0
  -10.1108  141.1381   12.4301 C   0  0  0  0  0  0  0  0  0  0  0  0
  -10.8342  141.7326   13.4446 C   0  0  0  0  0  0  0  0  0  0  0  0
  -12.6255  141.1740   13.7256 Br  0  0  0  0  0  0  0  0  0  0  0  0
  -10.2635  142.7283   14.2512 C   0  0  0  0  0  0  0  0  0  0  0  0
  -11.0399  143.2860   15.2398 O   0  0  0  0  0  0  0  0  0  0  0  0
  -10.6852  143.9532   15.7938 H   0  0  0  0  0  0  0  0  0  0  0  0
   -8.7757  140.4851   10.0805 F   0  0  0  0  0  0  0  0  0  0  0  0
   -8.0192  140.8802   11.0899 C   0  0  0  0  0  0  0  0  0  0  0  0
   -7.3447  139.7985   11.4859 F   0  0  0  0  0  0  0  0  0  0  0  0
   -7.1328  141.6953   10.5543 F   0  0  0  0  0  0  0  0  0  0  0  0
 10 11  1  0  0  0
 12 11  1  0  0  0
 13 11  1  0  0  0
 11  1  1  0  0  0
  1  2  2  0  0  0
  1  4  1  0  0  0
  2  3  1  0  0  0
  4  5  2  0  0  0
  3  7  2  0  0  0
  5  7  1  0  0  0
  5  6  1  0  0  0
  7  8  1  0  0  0
  8  9  1  0  0  0
M  END
> <minimizedAffinity>
-5.74996

$$$$



 13 13  0  0  0  0  0  0  0  0999 V2000
   -8.9345  142.0043   12.8451 C   0  0  0  0  0  0  0  0  0  0  0  0
   -7.8190  141.8988   12.0218 C   0  0  0  0  0  0  0  0  0  0  0  0
   -7.7877  140.9994   10.9654 C   0  0  0  0  0  0  0  0  0  0  0  0
  -10.0369  141.1954   12.5942 C   0  0  0  0  0  0  0  0  0  0  0  0
  -10.0173  140.3029   11.5410 C   0  0  0  0  0  0  0  0  0  0  0  0
  -11.5501  139.2263   11.2391 Br  0  0  0  0  0  0  0  0  0  0  0  0
   -8.8921  140.1894   10.7112 C   0  0  0  0  0  0  0  0  0  0  0  0
   -8.9335  139.2758    9.6840 O   0  0  0  0  0  0  0  0  0  0  0  0
   -8.1964  139.1783    9.1137 H   0  0  0  0  0  0  0  0  0  0  0  0
   -8.3899  142.4784   15.0855 F   0  0  0  0  0  0  0  0  0  0  0  0
   -8.9557  142.9600   13.9923 C   0  0  0  0  0  0  0  0  0  0  0  0
  -10.1921  143.3162   14.3476 F   0  0  0  0  0  0  0  0  0  0  0  0
   -8.3065  144.0777   13.7351 F   0  0  0  0  0  0  0  0  0  0  0  0
 10 11  1  0  0  0
 12 11  1  0  0  0
 13 11  1  0  0  0
 11  1  1  0  0  0
  1  2  2  0  0  0
  1  4  1  0  0  0
  2  3  1  0  0  0
  4  5  2  0  0  0
  3  7  2  0  0  0
  5  7  1  0  0  0
  5  6  1  0  0  0
  7  8  1  0  0  0
  8  9  1  0  0  0
M  END
> <minimizedAffinity>
-5.68427

$$$$



 13 13  0  0  0  0  0  0  0  0999 V2000
   -9.2757  141.7014   12.5764 C   0  0  0  0  0  0  0  0  0  0  0  0
  -10.0060  140.7137   11.9250 C   0  0  0  0  0  0  0  0  0  0  0  0
  -11.3270  140.4555   12.2629 C   0  0  0  0  0  0  0  0  0  0  0  0
   -9.8898  142.4441   13.5783 C   0  0  0  0  0  0  0  0  0  0  0  0
  -11.2058  142.1989   13.9162 C   0  0  0  0  0  0  0  0  0  0  0  0
  -11.9976  143.2447   15.2870 Br  0  0  0  0  0  0  0  0  0  0  0  0
  -11.9446  141.1999   13.2653 C   0  0  0  0  0  0  0  0  0  0  0  0
  -13.2487  141.0007   13.6541 O   0  0  0  0  0  0  0  0  0  0  0  0
  -13.7663  140.3404   13.2370 H   0  0  0  0  0  0  0  0  0  0  0  0
   -7.5666  141.6987   10.9578 F   0  0  0  0  0  0  0  0  0  0  0  0
   -7.8487  141.9622   12.2221 C   0  0  0  0  0  0  0  0  0  0  0  0
   -6.9937  141.2364   12.9460 F   0  0  0  0  0  0  0  0  0  0  0  0
   -7.5041  143.2226   12.3939 F   0  0  0  0  0  0  0  0  0  0  0  0
 10 11  1  0  0  0
 12 11  1  0  0  0
 13 11  1  0  0  0
 11  1  1  0  0  0
  1  2  2  0  0  0
  1  4  1  0  0  0
  2  3  1  0  0  0
  4  5  2  0  0  0
  3  7  2  0  0  0
  5  7  1  0  0  0
  5  6  1  0  0  0
  7  8  1  0  0  0
  8  9  1  0  0  0
M  END
> <minimizedAffinity>
-5.65847

$$$$



 13 13  0  0  0  0  0  0  0  0999 V2000
   -8.0482  140.6080   11.9922 C   0  0  0  0  0  0  0  0  0  0  0  0
   -7.7021  141.6662   12.8251 C   0  0  0  0  0  0  0  0  0  0  0  0
   -8.6724  142.4231   13.4667 C   0  0  0  0  0  0  0  0  0  0  0  0
   -9.3926  140.3049   11.8099 C   0  0  0  0  0  0  0  0  0  0  0  0
  -10.3644  141.0481   12.4497 C   0  0  0  0  0  0  0  0  0  0  0  0
  -12.1841  140.5891   12.1708 Br  0  0  0  0  0  0  0  0  0  0  0  0
  -10.0200  142.1198   13.2867 C   0  0  0  0  0  0  0  0  0  0  0  0
  -11.0359  142.8248   13.8886 O   0  0  0  0  0  0  0  0  0  0  0  0
  -10.8357  143.5456   14.4528 H   0  0  0  0  0  0  0  0  0  0  0  0
   -6.0585  140.5525   10.7357 F   0  0  0  0  0  0  0  0  0  0  0  0
   -7.0009  139.8088   11.2891 C   0  0  0  0  0  0  0  0  0  0  0  0
   -7.4969  139.0559   10.3048 F   0  0  0  0  0  0  0  0  0  0  0  0
   -6.3591  138.9888   12.0968 F   0  0  0  0  0  0  0  0  0  0  0  0
 10 11  1  0  0  0
 12 11  1  0  0  0
 13 11  1  0  0  0
 11  1  1  0  0  0
  1  2  2  0  0  0
  1  4  1  0  0  0
  2  3  1  0  0  0
  4  5  2  0  0  0
  3  7  2  0  0  0
  5  7  1  0  0  0
  5  6  1  0  0  0
  7  8  1  0  0  0
  8  9  1  0  0  0
M  END
> <minimizedAffinity>
-5.63696

$$$$



 13 13  0  0  0  0  0  0  0  0999 V2000
   -9.2954  141.6666   12.5374 C   0  0  0  0  0  0  0  0  0  0  0  0
  -10.0092  142.3019   13.5474 C   0  0  0  0  0  0  0  0  0  0  0  0
  -11.3454  142.0069   13.7783 C   0  0  0  0  0  0  0  0  0  0  0  0
   -9.9376  140.7147   11.7538 C   0  0  0  0  0  0  0  0  0  0  0  0
  -11.2648  140.4097   11.9810 C   0  0  0  0  0  0  0  0  0  0  0  0
  -12.0919  139.0991   10.8865 Br  0  0  0  0  0  0  0  0  0  0  0  0
  -11.9902  141.0519   12.9955 C   0  0  0  0  0  0  0  0  0  0  0  0
  -13.3108  140.7080   13.1653 O   0  0  0  0  0  0  0  0  0  0  0  0
  -13.8200  141.1206   13.8350 H   0  0  0  0  0  0  0  0  0  0  0  0
   -7.4906  141.7853   11.0309 F   0  0  0  0  0  0  0  0  0  0  0  0
   -7.8630  142.0017   12.2806 C   0  0  0  0  0  0  0  0  0  0  0  0
   -7.0214  141.2966   13.0397 F   0  0  0  0  0  0  0  0  0  0  0  0
   -7.5898  143.2715   12.5038 F   0  0  0  0  0  0  0  0  0  0  0  0
 10 11  1  0  0  0
 12 11  1  0  0  0
 13 11  1  0  0  0
 11  1  1  0  0  0
  1  2  2  0  0  0
  1  4  1  0  0  0
  2  3  1  0  0  0
  4  5  2  0  0  0
  3  7  2  0  0  0
  5  7  1  0  0  0
  5  6  1  0  0  0
  7  8  1  0  0  0
  8  9  1  0  0  0
M  END
> <minimizedAffinity>
-5.61609

$$$$



 13 13  0  0  0  0  0  0  0  0999 V2000
   -8.8457  141.4346   12.2342 C   0  0  0  0  0  0  0  0  0  0  0  0
  -10.1346  140.9135   12.2099 C   0  0  0  0  0  0  0  0  0  0  0  0
  -11.1056  141.3557   13.0973 C   0  0  0  0  0  0  0  0  0  0  0  0
   -8.5345  142.4213   13.1627 C   0  0  0  0  0  0  0  0  0  0  0  0
   -9.4962  142.8723   14.0446 C   0  0  0  0  0  0  0  0  0  0  0  0
   -9.0205  144.2242   15.2880 Br  0  0  0  0  0  0  0  0  0  0  0  0
  -10.7963  142.3457   14.0272 C   0  0  0  0  0  0  0  0  0  0  0  0
  -11.7053  142.8327   14.9370 O   0  0  0  0  0  0  0  0  0  0  0  0
  -12.5810  142.4995   14.9485 H   0  0  0  0  0  0  0  0  0  0  0  0
   -8.2767  140.1460   10.3483 F   0  0  0  0  0  0  0  0  0  0  0  0
   -7.7993  140.9415   11.2899 C   0  0  0  0  0  0  0  0  0  0  0  0
   -6.8356  140.2480   11.8999 F   0  0  0  0  0  0  0  0  0  0  0  0
   -7.1993  141.9187   10.6402 F   0  0  0  0  0  0  0  0  0  0  0  0
 10 11  1  0  0  0
 12 11  1  0  0  0
 13 11  1  0  0  0
 11  1  1  0  0  0
  1  2  2  0  0  0
  1  4  1  0  0  0
  2  3  1  0  0  0
  4  5  2  0  0  0
  3  7  2  0  0  0
  5  7  1  0  0  0
  5  6  1  0  0  0
  7  8  1  0  0  0
  8  9  1  0  0  0
M  END
> <minimizedAffinity>
-5.60413

$$$$



 13 13  0  0  0  0  0  0  0  0999 V2000
   -8.9929  140.6592   12.4594 C   0  0  0  0  0  0  0  0  0  0  0  0
   -9.8214  140.0774   11.5064 C   0  0  0  0  0  0  0  0  0  0  0  0
  -10.8528  139.2250   11.8745 C   0  0  0  0  0  0  0  0  0  0  0  0
   -9.2130  140.3823   13.8038 C   0  0  0  0  0  0  0  0  0  0  0  0
  -10.2412  139.5410   14.1797 C   0  0  0  0  0  0  0  0  0  0  0  0
  -10.5016  139.2006   16.0280 Br  0  0  0  0  0  0  0  0  0  0  0  0
  -11.0762  138.9478   13.2213 C   0  0  0  0  0  0  0  0  0  0  0  0
  -12.0773  138.1136   13.6609 O   0  0  0  0  0  0  0  0  0  0  0  0
  -12.6503  137.7034   13.0433 H   0  0  0  0  0  0  0  0  0  0  0  0
   -6.7004  141.1872   12.5409 F   0  0  0  0  0  0  0  0  0  0  0  0
   -7.8725  141.5605   12.0567 C   0  0  0  0  0  0  0  0  0  0  0  0
   -8.0498  142.8204   12.4604 F   0  0  0  0  0  0  0  0  0  0  0  0
   -7.7031  141.6092   10.7507 F   0  0  0  0  0  0  0  0  0  0  0  0
 10 11  1  0  0  0
 12 11  1  0  0  0
 13 11  1  0  0  0
 11  1  1  0  0  0
  1  2  2  0  0  0
  1  4  1  0  0  0
  2  3  1  0  0  0
  4  5  2  0  0  0
  3  7  2  0  0  0
  5  7  1  0  0  0
  5  6  1  0  0  0
  7  8  1  0  0  0
  8  9  1  0  0  0
M  END
> <minimizedAffinity>
-5.54939

$$$$
